Sistemas/ieee39.pwf
TITU
Sistema Teste - New England                                              
DCTE
(Mn) ( Val) (Mn) ( Val) (Mn) ( Val) (Mn) ( Val) (Mn) ( Val) (Mn) ( Val) 
BASE   100. DASE   100. TEPA   1E-4 EXST     .4 TETP     .5 TBPA     5.
TLPP     1. TEPR   1E-4 QLST     .4 TLPR     1. TLPQ     2. TSBZ    .01
TSBA     5. ASTP    .05 VSTP     .1 TLVC     .5 TLTC     .1 TSFR    .01
ZMAX   500. TLPV     .5 VDVM   150. VDVN    50. TUDC    .01 TADC    .01
PGER    30. TPST     .1 VFLD    70. ZMIN    .01 HIST    470 LFIT     10
ACIT     90 LFCV      1 DCIT     10 VSIT     10 LPIT     20 LFLP      5
PDIT      1 LCRT     24 LPRT     60 CSTP   500.
ICIT     30 DMAX      5 FDIV     2. ICMN    .05 VART     5. TSTP     32
ICMV     .5 APAS    90. CPAR    70. VAVT     2. VAVF     5. VMVF    15.
VPVT     2. VPVF     5. VPMF    10. VSVF    20. VINF     1. VSUP     1.
99999
DBAR
(Num)OETGb(   nome   )Gl( V)( A)( Pg)( Qg)( Qn)( Qm)(Bc  )( Pl)( Ql)( Sh)Are(Vf)
    1 L   BARRA-001     1048-9.5                                           11000
    2 L   BARRA-002     1049-6.9                                           11000
    3 L   BARRA-003     1031-9.8                           322.  2.4       11000
    4 L   BARRA-004     1004-11.                           500. 184.       11000
    5 L   BARRA-005     1005-9.4                                           11000
    6 L   BARRA-006     1007-8.7                                           11000
    7 L   BARRA-007      997-11.                          233.8  84.       11000
    8 L   BARRA-008      996-11.                           522. 176.       11000
    9 L   BARRA-009     1028-11.                                           11000
   10 L   BARRA-010     1017-6.3                                           11000
   11 L   BARRA-011     1013-7.1                                           11000
   12 L   BARRA-012     1000-7.1                            8.5  88.       11000
   13 L   BARRA-013     1014 -7.                                           11000
   14 L   BARRA-014     1012-8.7                                           11000
   15 L   BARRA-015     1016-9.1                           320. 153.       11000
   16 L   BARRA-016     1032-7.7                          329.4 32.3       11000
   17 L   BARRA-017     1034-8.7                                           11000
   18 L   BARRA-018     1031-9.5                           158.  30.       11000
   19 L   BARRA-019     1050 -3.                                           11000
   20 L   BARRA-020      991-4.5                           680. 103.       11000
   21 L   BARRA-021     1032-5.3                           274. 115.       11000
   22 L   BARRA-022     1050-.82                                           11000
   23 L   BARRA-023     1045 -1.                          247.5 84.6       11000
   24 L   BARRA-024     1038-7.6                          308.6-92.2       11000
   25 L   BARRA-025     1058-5.5                           224. 47.2       11000
   26 L   BARRA-026     1052-6.8                           139.  17.       11000
   27 L   BARRA-027     1038-8.8                           281. 75.5       11000
   28 L   BARRA-028     1051-3.3                           206. 27.6       11000
   29 L   BARRA-029     1050-.54                          283.5 26.9       11000
   30 L1  BARRA-030     1048-4.5 250.146.3-9999130                         11000
   31 L1  BARRA-031      982.115573.2207.1-9999200          9.2  4.6       11000
   32 L1  BARRA-032      9831.73 650.205.3-9999200                         11000
   33 L1  BARRA-033      9972.17 632.108.6-999999999                       11000
   34 L1  BARRA-034     1012.734 508.166.5-999999999                       11000
   35 L1  BARRA-035     10494.14 650.209.3-999999999                       11000
   36 L1  BARRA-036     10646.83 560.102.1-999999999                       11000
   37 L1  BARRA-037     10281.24 540..4102-999999999                       11000
   38 L1  BARRA-038     10276.52 830.23.02-999999999                       11000
   39 L2  BARRA-039     1030-11.1000.87.43-999999999      1104. 250.       11000
99999
DLIN
(De )d O d(Pa )NcEP ( R% )( X% )(Mvar)(Tap)(Tmn)(Tmx)(Phs)(Bc  )(Cn)(Ce)Ns
    1         2 1      .35  4.11 69.87                                    
    1        39 1       .1   2.5   75.                                    
    2         3 1      .13  1.51 25.72                                    
    2        25 1       .7   .86  14.6                                    
    2        30 1           1.81      1.025                               
    3         4 1      .13  2.13 22.14                                    
    3        18 1      .11  1.33 21.38                                    
    4         5 1      .08  1.28 13.42                                    
    4        14 1      .08  1.29 13.82                                    
    5         6 1      .02   .26  4.34                                    
    5         8 1      .08  1.12 14.76                                    
    6         7 1      .06   .92  11.3                                    
    6        11 1      .07   .82 13.89                                    
    6        31 1            2.5       1.07                               
    7         8 1      .04   .46   7.8                                    
    8         9 1      .23  3.63 38.04                                    
    9        39 1       .1   2.5  120.                                    
   10        11 1      .04   .43  7.29                                    
   10        13 1      .04   .43  7.29                                    
   10        32 1             2.       1.07                               
   12        11 1      .16  4.35      1.006                               
   12        13 1      .16  4.35      1.006                               
   13        14 1      .09  1.01 17.23                                    
   14        15 1      .18  2.17  36.6                                    
   15        16 1      .09   .94  17.1                                    
   16        17 1      .07   .89 13.42                                    
   16        19 1      .16  1.95  30.4                                    
   16        21 1      .08  1.35 25.48                                    
   16        24 1      .03   .59   6.8                                    
   17        18 1      .07   .82 13.19                                    
   17        27 1      .13  1.73 32.16                                    
   19        20 1      .07  1.38       1.06                               
   19        33 1      .07  1.42       1.07                               
   20        34 1      .09   1.8      1.009                               
   21        22 1      .08   1.4 25.65                                    
   22        23 1      .06   .96 18.46                                    
   22        35 1           1.43      1.025                               
   23        24 1      .22   3.5  36.1                                    
   23        36 1      .05  2.72         1.                               
   25        26 1      .32  3.23  51.3                                    
   25        37 1      .06  2.32      1.025                               
   26        27 1      .14  1.47 23.96                                    
   26        28 1      .43  4.74 78.02                                    
   26        29 1      .57  6.25 102.9                                    
   28        29 1      .14  1.51  24.9                                    
   29        38 1      .08  1.56      1.025                               
99999
DGLT
(G (Vmn) (Vmx) (Vmne (Vmxe
 0   .95  1.05   .95  1.05
99999
DGER
(No ) O (Pmn ) (Pmx ) ( Fp) (FpR) (FPn) (Fa) (Fr) (Ag) ( Xq) (Sno) (Est)
   30   0.0    9999.                                                0.5
   31   0.0    9999.                                                0.5
   32   0.0    9999.                                                0.5
   33   0.0    9999.                                                0.5
   34   0.0    9999.                                                0.5
   35   0.0    9999.                                                0.5
   36   0.0    9999.                                                0.5
   37   0.0    9999.                                                0.5
   38   0.0    9999.                                                0.5
   39   0.0    9999.                                                0.5
99999
(
( -- CASO BASE -- NEWTON RAPHSON PADRAO -- SEM CONTROLE --
(
EXLF NEWT 
RELA RBAR
FIM